
#======================================================================
# CRYSTAL DATA
#----------------------------------------------------------------------
data_VESTA_phase_1

_chemical_name_common                  'Co1 Li1 O2'
_cell_length_a                         2.8131(10)
_cell_length_b                         2.8131(10)
_cell_length_c                         14.0530(10)
_cell_angle_alpha                      90.000000
_cell_angle_beta                       90.000000
_cell_angle_gamma                      120.000000
_cell_volume                           96.309708
_space_group_name_H-M_alt              'R -3 m'
_space_group_IT_number                 166

loop_
_space_group_symop_operation_xyz
   'x, y, z'
   '-x, -y, -z'
   '-y, x-y, z'
   'y, -x+y, -z'
   '-x+y, -x, z'
   'x-y, x, -z'
   'y, x, -z'
   '-y, -x, z'
   'x-y, -y, -z'
   '-x+y, y, z'
   '-x, -x+y, -z'
   'x, x-y, z'
   'x+2/3t, y+1/3t, z+1/3t'
   '-x+2/3t, -y+1/3t, -z+1/3t'
   '-y+2/3t, x-y+1/3t, z+1/3t'
   'y+2/3t, -x+y+1/3t, -z+1/3t'
   '-x+y+2/3t, -x+1/3t, z+1/3t'
   'x-y+2/3t, x+1/3t, -z+1/3t'
   'y+2/3t, x+1/3t, -z+1/3t'
   '-y+2/3t, -x+1/3t, z+1/3t'
   'x-y+2/3t, -y+1/3t, -z+1/3t'
   '-x+y+2/3t, y+1/3t, z+1/3t'
   '-x+2/3t, -x+y+1/3t, -z+1/3t'
   'x+2/3t, x-y+1/3t, z+1/3t'
   'x+1/3t, y+2/3t, z+2/3t'
   '-x+1/3t, -y+2/3t, -z+2/3t'
   '-y+1/3t, x-y+2/3t, z+2/3t'
   'y+1/3t, -x+y+2/3t, -z+2/3t'
   '-x+y+1/3t, -x+2/3t, z+2/3t'
   'x-y+1/3t, x+2/3t, -z+2/3t'
   'y+1/3t, x+2/3t, -z+2/3t'
   '-y+1/3t, -x+2/3t, z+2/3t'
   'x-y+1/3t, -y+2/3t, -z+2/3t'
   '-x+y+1/3t, y+2/3t, z+2/3t'
   '-x+1/3t, -x+y+2/3t, -z+2/3t'
   'x+1/3t, x-y+2/3t, z+2/3t'

loop_
   _atom_site_label
   _atom_site_occupancy
   _atom_site_fract_x
   _atom_site_fract_y
   _atom_site_fract_z
   _atom_site_adp_type
   _atom_site_B_iso_or_equiv
   _atom_site_type_symbol
   Li1        1.0     0.000000     0.000000     0.000000    Biso  ? Li
   Co1        1.0     0.000000     0.000000     0.500000    Biso  ? Co
   O1         1.0     0.000000     0.000000     0.2390(5)   Biso  ? O
